Version 4.1
SHEET 1 880 680
WIRE 368 0 80 0
WIRE 256 80 144 80
WIRE 144 144 144 80
WIRE 80 160 80 0
WIRE 112 160 80 160
WIRE 352 160 256 160
WIRE 368 176 368 0
WIRE 368 176 176 176
WIRE 480 176 368 176
WIRE 112 192 80 192
WIRE 80 224 80 192
WIRE 144 224 144 208
WIRE 256 224 144 224
WIRE 80 352 80 304
WIRE 256 352 256 304
WIRE 352 352 352 160
FLAG 80 352 0
FLAG 256 352 0
FLAG 352 352 0
SYMBOL voltage 256 64 R0
WINDOW 123 0 0 Left 0
WINDOW 39 0 0 Left 0
SYMATTR InstName V1
SYMATTR Value +15V
SYMBOL voltage 256 208 R0
SYMATTR InstName V2
SYMATTR Value -15V
SYMBOL voltage 80 208 R0
WINDOW 123 0 0 Left 0
WINDOW 39 0 0 Left 0
SYMATTR InstName V3
SYMATTR Value SINE(0 2V 1000)
SYMBOL OpAmps\\UniversalOpAmp2 144 176 R0
SYMATTR InstName U1
TEXT -96 376 Left 2 !.tran 0 5m 0 10u
